Version 4.1
SHEET 1 2120 680
WIRE 992 -80 992 -144
WIRE 32 -48 32 -80
WIRE -16 -32 -48 -32
WIRE 1824 0 1824 -32
WIRE -16 16 -64 16
WIRE -64 32 -64 16
WIRE 560 48 560 16
WIRE 32 64 32 32
WIRE -256 80 -256 0
WIRE -160 80 -160 32
WIRE 992 80 992 0
WIRE 1824 112 1824 80
WIRE 1904 112 1824 112
WIRE 2048 112 1984 112
WIRE 1824 144 1824 112
WIRE 32 160 32 144
WIRE 176 160 32 160
WIRE 560 160 560 128
WIRE 640 160 560 160
WIRE 784 160 720 160
WIRE 944 160 784 160
WIRE 2048 160 2048 112
WIRE -160 176 -160 160
WIRE 32 176 32 160
WIRE 176 176 176 160
WIRE 560 192 560 160
WIRE -256 208 -256 160
WIRE 512 208 480 208
WIRE 784 208 784 160
WIRE 1584 224 1488 224
WIRE 1712 224 1664 224
WIRE 1776 224 1712 224
WIRE 992 240 992 176
WIRE 512 256 464 256
WIRE 2048 256 2048 224
WIRE 464 272 464 256
WIRE 32 288 32 256
WIRE 176 288 176 240
WIRE 560 304 560 272
WIRE 784 304 784 272
WIRE 1824 320 1824 240
WIRE 1712 336 1712 304
FLAG -160 32 3V3
FLAG -160 176 0
FLAG 560 304 0
FLAG 784 304 0
FLAG -256 208 0
FLAG -256 0 TIMING
FLAG 480 208 TIMING
FLAG 464 272 0
FLAG 560 16 3V3
FLAG 1824 320 0
FLAG 2048 256 0
FLAG 1824 -32 3V3
FLAG 1488 224 TIMING
FLAG 1712 336 0
FLAG 992 240 0
FLAG -48 -32 TIMING
FLAG -64 32 0
FLAG 32 288 0
FLAG 176 288 0
FLAG 32 -80 3V3
FLAG 992 -144 3V3
SYMBOL voltage -160 64 R0
WINDOW 123 0 0 Left 0
WINDOW 39 0 0 Left 0
SYMATTR InstName V1
SYMATTR Value 3.3V
SYMBOL res 544 32 R0
SYMATTR InstName R1
SYMATTR Value 1k
SYMBOL res 736 144 R90
WINDOW 0 0 56 VBottom 2
WINDOW 3 32 56 VTop 2
SYMATTR InstName R2
SYMATTR Value 1k
SYMBOL cap 768 208 R0
SYMATTR InstName C1
SYMATTR Value 100n
SYMBOL sw 560 288 M180
SYMATTR InstName S1
SYMATTR Value SW_1
SYMBOL voltage -256 64 R0
WINDOW 3 -70 203 VLeft 2
WINDOW 123 0 0 Left 0
WINDOW 39 0 0 Left 0
SYMATTR InstName V2
SYMATTR Value PULSE(0 3.3 0.1ms 1u 1u 6ms 12ms)
SYMBOL res 1808 -16 R0
SYMATTR InstName R5
SYMATTR Value 1k
SYMBOL res 2000 96 R90
WINDOW 0 0 56 VBottom 2
WINDOW 3 32 56 VTop 2
SYMATTR InstName R6
SYMATTR Value 1k
SYMBOL cap 2032 160 R0
SYMATTR InstName C3
SYMATTR Value 100n
SYMBOL nmos 1776 144 R0
SYMATTR InstName M1
SYMATTR Value BSS145
SYMBOL res 1680 208 R90
WINDOW 0 0 56 VBottom 2
WINDOW 3 32 56 VTop 2
SYMATTR InstName R7
SYMATTR Value 1k
SYMBOL res 1696 208 R0
SYMATTR InstName R8
SYMATTR Value 100k
SYMBOL nmos 944 80 R0
SYMATTR InstName M2
SYMATTR Value BSS145
SYMBOL sw 32 48 M180
SYMATTR InstName S3
SYMATTR Value SW_1
SYMBOL res 16 48 R0
SYMATTR InstName R9
SYMATTR Value 1k
SYMBOL res 16 160 R0
SYMATTR InstName R10
SYMATTR Value 10k
SYMBOL cap 160 176 R0
SYMATTR InstName C4
SYMATTR Value 100n
SYMBOL res 976 -96 R0
SYMATTR InstName R3
SYMATTR Value 1k
TEXT -352 448 Left 2 !.tran 24ms
TEXT -352 424 Left 2 !.Model SW_1 SW(Ron=1m Roff=100Meg Vt=0.5)
